
---------- Begin Simulation Statistics ----------
simSeconds                                   0.007331                       # Number of seconds simulated (Second)
simTicks                                   7330716135                       # Number of ticks simulated (Tick)
finalTick                                  7330716135                       # Number of ticks from beginning of simulation (restored from checkpoints and never reset) (Tick)
simFreq                                  1000000000000                       # The number of ticks per simulated second ((Tick/Second))
hostSeconds                                    666.31                       # Real time elapsed on the host (Second)
hostTickRate                                 11001891                       # The number of ticks simulated per host second (ticks/s) ((Tick/Second))
hostMemory                                    2264804                       # Number of bytes of host memory used (Byte)
simInsts                                     21525038                       # Number of instructions simulated (Count)
simOps                                       36651012                       # Number of ops (including micro ops) simulated (Count)
hostInstRate                                    32305                       # Simulator instruction rate (inst/s) ((Count/Second))
hostOpRate                                      55005                       # Simulator op (including micro ops) rate (op/s) ((Count/Second))
system.work_item_type0::samples                     1                       # Run time stat forwork_item_type0 (Unspecified)
system.work_item_type0::mean               3764788410                       # Run time stat forwork_item_type0 (Unspecified)
system.work_item_type0::gmean            3764788409.999995                       # Run time stat forwork_item_type0 (Unspecified)
system.work_item_type0::stdev                     nan                       # Run time stat forwork_item_type0 (Unspecified)
system.work_item_type0::0-2.68435e+08               0      0.00%      0.00% # Run time stat forwork_item_type0 (Unspecified)
system.work_item_type0::2.68435e+08-5.36871e+08            0      0.00%      0.00% # Run time stat forwork_item_type0 (Unspecified)
system.work_item_type0::5.36871e+08-8.05306e+08            0      0.00%      0.00% # Run time stat forwork_item_type0 (Unspecified)
system.work_item_type0::8.05306e+08-1.07374e+09            0      0.00%      0.00% # Run time stat forwork_item_type0 (Unspecified)
system.work_item_type0::1.07374e+09-1.34218e+09            0      0.00%      0.00% # Run time stat forwork_item_type0 (Unspecified)
system.work_item_type0::1.34218e+09-1.61061e+09            0      0.00%      0.00% # Run time stat forwork_item_type0 (Unspecified)
system.work_item_type0::1.61061e+09-1.87905e+09            0      0.00%      0.00% # Run time stat forwork_item_type0 (Unspecified)
system.work_item_type0::1.87905e+09-2.14748e+09            0      0.00%      0.00% # Run time stat forwork_item_type0 (Unspecified)
system.work_item_type0::2.14748e+09-2.41592e+09            0      0.00%      0.00% # Run time stat forwork_item_type0 (Unspecified)
system.work_item_type0::2.41592e+09-2.68435e+09            0      0.00%      0.00% # Run time stat forwork_item_type0 (Unspecified)
system.work_item_type0::2.68435e+09-2.95279e+09            0      0.00%      0.00% # Run time stat forwork_item_type0 (Unspecified)
system.work_item_type0::2.95279e+09-3.22123e+09            0      0.00%      0.00% # Run time stat forwork_item_type0 (Unspecified)
system.work_item_type0::3.22123e+09-3.48966e+09            0      0.00%      0.00% # Run time stat forwork_item_type0 (Unspecified)
system.work_item_type0::3.48966e+09-3.7581e+09            0      0.00%      0.00% # Run time stat forwork_item_type0 (Unspecified)
system.work_item_type0::3.7581e+09-4.02653e+09            1    100.00%    100.00% # Run time stat forwork_item_type0 (Unspecified)
system.work_item_type0::4.02653e+09-4.29497e+09            0      0.00%    100.00% # Run time stat forwork_item_type0 (Unspecified)
system.work_item_type0::4.29497e+09-4.5634e+09            0      0.00%    100.00% # Run time stat forwork_item_type0 (Unspecified)
system.work_item_type0::4.5634e+09-4.83184e+09            0      0.00%    100.00% # Run time stat forwork_item_type0 (Unspecified)
system.work_item_type0::4.83184e+09-5.10027e+09            0      0.00%    100.00% # Run time stat forwork_item_type0 (Unspecified)
system.work_item_type0::5.10027e+09-5.36871e+09            0      0.00%    100.00% # Run time stat forwork_item_type0 (Unspecified)
system.work_item_type0::total                       1                       # Run time stat forwork_item_type0 (Unspecified)
system.clk_domain.clock                           435                       # Clock period in ticks (Tick)
system.clk_domain.voltage_domain.voltage            1                       # Voltage in Volts (Volt)
system.cpu.numCycles                         16852222                       # Number of cpu cycles simulated (Cycle)
system.cpu.cpi                               0.782913                       # CPI: cycles per instruction (core level) ((Cycle/Count))
system.cpu.ipc                               1.277282                       # IPC: instructions per cycle (core level) ((Count/Cycle))
system.cpu.numWorkItemsStarted                      1                       # Number of work items this cpu started (Count)
system.cpu.numWorkItemsCompleted                    1                       # Number of work items this cpu completed (Count)
system.cpu.instsAdded                        41302969                       # Number of instructions added to the IQ (excludes non-spec) (Count)
system.cpu.nonSpecInstsAdded                   132398                       # Number of non-speculative instructions added to the IQ (Count)
system.cpu.instsIssued                       39434556                       # Number of instructions issued (Count)
system.cpu.squashedInstsIssued                   9071                       # Number of squashed instructions issued (Count)
system.cpu.squashedInstsExamined              4784349                       # Number of squashed instructions iterated over during squash; mainly for profiling (Count)
system.cpu.squashedOperandsExamined          11076763                       # Number of squashed operands that are examined and possibly removed from graph (Count)
system.cpu.squashedNonSpecRemoved                 406                       # Number of squashed non-spec instructions that were removed (Count)
system.cpu.numIssuedDist::samples            16605938                       # Number of insts issued each cycle (Count)
system.cpu.numIssuedDist::mean               2.374726                       # Number of insts issued each cycle (Count)
system.cpu.numIssuedDist::stdev              2.372575                       # Number of insts issued each cycle (Count)
system.cpu.numIssuedDist::underflows                0      0.00%      0.00% # Number of insts issued each cycle (Count)
system.cpu.numIssuedDist::0                   5624360     33.87%     33.87% # Number of insts issued each cycle (Count)
system.cpu.numIssuedDist::1                   2335955     14.07%     47.94% # Number of insts issued each cycle (Count)
system.cpu.numIssuedDist::2                   1700843     10.24%     58.18% # Number of insts issued each cycle (Count)
system.cpu.numIssuedDist::3                   1450434      8.73%     66.91% # Number of insts issued each cycle (Count)
system.cpu.numIssuedDist::4                   1696305     10.22%     77.13% # Number of insts issued each cycle (Count)
system.cpu.numIssuedDist::5                   1620168      9.76%     86.88% # Number of insts issued each cycle (Count)
system.cpu.numIssuedDist::6                   1176110      7.08%     93.97% # Number of insts issued each cycle (Count)
system.cpu.numIssuedDist::7                    611211      3.68%     97.65% # Number of insts issued each cycle (Count)
system.cpu.numIssuedDist::8                    390552      2.35%    100.00% # Number of insts issued each cycle (Count)
system.cpu.numIssuedDist::overflows                 0      0.00%    100.00% # Number of insts issued each cycle (Count)
system.cpu.numIssuedDist::min_value                 0                       # Number of insts issued each cycle (Count)
system.cpu.numIssuedDist::max_value                 8                       # Number of insts issued each cycle (Count)
system.cpu.numIssuedDist::total              16605938                       # Number of insts issued each cycle (Count)
system.cpu.statFuBusy::No_OpClass                   0      0.00%      0.00% # attempts to use FU when none available (Count)
system.cpu.statFuBusy::IntAlu                  139342     56.04%     56.04% # attempts to use FU when none available (Count)
system.cpu.statFuBusy::IntMult                      0      0.00%     56.04% # attempts to use FU when none available (Count)
system.cpu.statFuBusy::IntDiv                       0      0.00%     56.04% # attempts to use FU when none available (Count)
system.cpu.statFuBusy::FloatAdd                     0      0.00%     56.04% # attempts to use FU when none available (Count)
system.cpu.statFuBusy::FloatCmp                     0      0.00%     56.04% # attempts to use FU when none available (Count)
system.cpu.statFuBusy::FloatCvt                     2      0.00%     56.04% # attempts to use FU when none available (Count)
system.cpu.statFuBusy::FloatMult                    0      0.00%     56.04% # attempts to use FU when none available (Count)
system.cpu.statFuBusy::FloatMultAcc                 0      0.00%     56.04% # attempts to use FU when none available (Count)
system.cpu.statFuBusy::FloatDiv                     0      0.00%     56.04% # attempts to use FU when none available (Count)
system.cpu.statFuBusy::FloatMisc                    0      0.00%     56.04% # attempts to use FU when none available (Count)
system.cpu.statFuBusy::FloatSqrt                    0      0.00%     56.04% # attempts to use FU when none available (Count)
system.cpu.statFuBusy::SimdAdd                      1      0.00%     56.04% # attempts to use FU when none available (Count)
system.cpu.statFuBusy::SimdAddAcc                   0      0.00%     56.04% # attempts to use FU when none available (Count)
system.cpu.statFuBusy::SimdAlu                     84      0.03%     56.07% # attempts to use FU when none available (Count)
system.cpu.statFuBusy::SimdCmp                      4      0.00%     56.07% # attempts to use FU when none available (Count)
system.cpu.statFuBusy::SimdCvt                    118      0.05%     56.12% # attempts to use FU when none available (Count)
system.cpu.statFuBusy::SimdMisc                    17      0.01%     56.13% # attempts to use FU when none available (Count)
system.cpu.statFuBusy::SimdMult                     0      0.00%     56.13% # attempts to use FU when none available (Count)
system.cpu.statFuBusy::SimdMultAcc                  0      0.00%     56.13% # attempts to use FU when none available (Count)
system.cpu.statFuBusy::SimdMatMultAcc               0      0.00%     56.13% # attempts to use FU when none available (Count)
system.cpu.statFuBusy::SimdShift                   17      0.01%     56.13% # attempts to use FU when none available (Count)
system.cpu.statFuBusy::SimdShiftAcc                 0      0.00%     56.13% # attempts to use FU when none available (Count)
system.cpu.statFuBusy::SimdDiv                      0      0.00%     56.13% # attempts to use FU when none available (Count)
system.cpu.statFuBusy::SimdSqrt                     0      0.00%     56.13% # attempts to use FU when none available (Count)
system.cpu.statFuBusy::SimdFloatAdd                 3      0.00%     56.14% # attempts to use FU when none available (Count)
system.cpu.statFuBusy::SimdFloatAlu                 0      0.00%     56.14% # attempts to use FU when none available (Count)
system.cpu.statFuBusy::SimdFloatCmp                 0      0.00%     56.14% # attempts to use FU when none available (Count)
system.cpu.statFuBusy::SimdFloatCvt                 0      0.00%     56.14% # attempts to use FU when none available (Count)
system.cpu.statFuBusy::SimdFloatDiv                 0      0.00%     56.14% # attempts to use FU when none available (Count)
system.cpu.statFuBusy::SimdFloatMisc                0      0.00%     56.14% # attempts to use FU when none available (Count)
system.cpu.statFuBusy::SimdFloatMult            84991     34.18%     90.32% # attempts to use FU when none available (Count)
system.cpu.statFuBusy::SimdFloatMultAcc             0      0.00%     90.32% # attempts to use FU when none available (Count)
system.cpu.statFuBusy::SimdFloatMatMultAcc            0      0.00%     90.32% # attempts to use FU when none available (Count)
system.cpu.statFuBusy::SimdFloatSqrt                0      0.00%     90.32% # attempts to use FU when none available (Count)
system.cpu.statFuBusy::SimdReduceAdd                0      0.00%     90.32% # attempts to use FU when none available (Count)
system.cpu.statFuBusy::SimdReduceAlu                0      0.00%     90.32% # attempts to use FU when none available (Count)
system.cpu.statFuBusy::SimdReduceCmp                0      0.00%     90.32% # attempts to use FU when none available (Count)
system.cpu.statFuBusy::SimdFloatReduceAdd            0      0.00%     90.32% # attempts to use FU when none available (Count)
system.cpu.statFuBusy::SimdFloatReduceCmp            0      0.00%     90.32% # attempts to use FU when none available (Count)
system.cpu.statFuBusy::SimdAes                      0      0.00%     90.32% # attempts to use FU when none available (Count)
system.cpu.statFuBusy::SimdAesMix                   0      0.00%     90.32% # attempts to use FU when none available (Count)
system.cpu.statFuBusy::SimdSha1Hash                 0      0.00%     90.32% # attempts to use FU when none available (Count)
system.cpu.statFuBusy::SimdSha1Hash2                0      0.00%     90.32% # attempts to use FU when none available (Count)
system.cpu.statFuBusy::SimdSha256Hash               0      0.00%     90.32% # attempts to use FU when none available (Count)
system.cpu.statFuBusy::SimdSha256Hash2              0      0.00%     90.32% # attempts to use FU when none available (Count)
system.cpu.statFuBusy::SimdShaSigma2                0      0.00%     90.32% # attempts to use FU when none available (Count)
system.cpu.statFuBusy::SimdShaSigma3                0      0.00%     90.32% # attempts to use FU when none available (Count)
system.cpu.statFuBusy::SimdSha3                     0      0.00%     90.32% # attempts to use FU when none available (Count)
system.cpu.statFuBusy::SimdSm4e                     0      0.00%     90.32% # attempts to use FU when none available (Count)
system.cpu.statFuBusy::SimdCrc                      0      0.00%     90.32% # attempts to use FU when none available (Count)
system.cpu.statFuBusy::SimdPredAlu                  0      0.00%     90.32% # attempts to use FU when none available (Count)
system.cpu.statFuBusy::SimdDotProd                  0      0.00%     90.32% # attempts to use FU when none available (Count)
system.cpu.statFuBusy::Matrix                       0      0.00%     90.32% # attempts to use FU when none available (Count)
system.cpu.statFuBusy::MatrixMov                    0      0.00%     90.32% # attempts to use FU when none available (Count)
system.cpu.statFuBusy::MatrixOP                     0      0.00%     90.32% # attempts to use FU when none available (Count)
system.cpu.statFuBusy::MemRead                  11584      4.66%     94.97% # attempts to use FU when none available (Count)
system.cpu.statFuBusy::MemWrite                 10241      4.12%     99.09% # attempts to use FU when none available (Count)
system.cpu.statFuBusy::FloatMemRead              2049      0.82%     99.92% # attempts to use FU when none available (Count)
system.cpu.statFuBusy::FloatMemWrite              208      0.08%    100.00% # attempts to use FU when none available (Count)
system.cpu.statFuBusy::InstPrefetch                 0      0.00%    100.00% # attempts to use FU when none available (Count)
system.cpu.statFuBusy::SimdUnitStrideLoad            0      0.00%    100.00% # attempts to use FU when none available (Count)
system.cpu.statFuBusy::SimdUnitStrideStore            0      0.00%    100.00% # attempts to use FU when none available (Count)
system.cpu.statFuBusy::SimdUnitStrideMaskLoad            0      0.00%    100.00% # attempts to use FU when none available (Count)
system.cpu.statFuBusy::SimdUnitStrideMaskStore            0      0.00%    100.00% # attempts to use FU when none available (Count)
system.cpu.statFuBusy::SimdStridedLoad              0      0.00%    100.00% # attempts to use FU when none available (Count)
system.cpu.statFuBusy::SimdStridedStore             0      0.00%    100.00% # attempts to use FU when none available (Count)
system.cpu.statFuBusy::SimdIndexedLoad              0      0.00%    100.00% # attempts to use FU when none available (Count)
system.cpu.statFuBusy::SimdIndexedStore             0      0.00%    100.00% # attempts to use FU when none available (Count)
system.cpu.statFuBusy::SimdWholeRegisterLoad            0      0.00%    100.00% # attempts to use FU when none available (Count)
system.cpu.statFuBusy::SimdWholeRegisterStore            0      0.00%    100.00% # attempts to use FU when none available (Count)
system.cpu.statFuBusy::SimdUnitStrideFaultOnlyFirstLoad            0      0.00%    100.00% # attempts to use FU when none available (Count)
system.cpu.statFuBusy::SimdUnitStrideSegmentedLoad            0      0.00%    100.00% # attempts to use FU when none available (Count)
system.cpu.statFuBusy::SimdUnitStrideSegmentedStore            0      0.00%    100.00% # attempts to use FU when none available (Count)
system.cpu.statFuBusy::SimdUnitStrideSegmentedFaultOnlyFirstLoad            0      0.00%    100.00% # attempts to use FU when none available (Count)
system.cpu.statFuBusy::SimdStrideSegmentedLoad            0      0.00%    100.00% # attempts to use FU when none available (Count)
system.cpu.statFuBusy::SimdStrideSegmentedStore            0      0.00%    100.00% # attempts to use FU when none available (Count)
system.cpu.statFuBusy::SimdExt                      0      0.00%    100.00% # attempts to use FU when none available (Count)
system.cpu.statFuBusy::SimdFloatExt                 0      0.00%    100.00% # attempts to use FU when none available (Count)
system.cpu.statFuBusy::SimdConfig                   0      0.00%    100.00% # attempts to use FU when none available (Count)
system.cpu.statFuBusy::SimdBf16Add                  0      0.00%    100.00% # attempts to use FU when none available (Count)
system.cpu.statFuBusy::SimdBf16Cmp                  0      0.00%    100.00% # attempts to use FU when none available (Count)
system.cpu.statFuBusy::SimdBf16Cvt                  0      0.00%    100.00% # attempts to use FU when none available (Count)
system.cpu.statFuBusy::SimdBf16DotProd              0      0.00%    100.00% # attempts to use FU when none available (Count)
system.cpu.statFuBusy::SimdBf16MatMultAcc            0      0.00%    100.00% # attempts to use FU when none available (Count)
system.cpu.statFuBusy::SimdBf16Mult                 0      0.00%    100.00% # attempts to use FU when none available (Count)
system.cpu.statFuBusy::SimdBf16MultAcc              0      0.00%    100.00% # attempts to use FU when none available (Count)
system.cpu.statFuBusy::Bf16Cvt                      0      0.00%    100.00% # attempts to use FU when none available (Count)
system.cpu.statFuBusy::System                       0      0.00%    100.00% # attempts to use FU when none available (Count)
system.cpu.issuedInstType_0::No_OpClass        130447      0.33%      0.33% # Number of instructions issued per FU type, per thread (Count)
system.cpu.issuedInstType_0::IntAlu          23302247     59.09%     59.42% # Number of instructions issued per FU type, per thread (Count)
system.cpu.issuedInstType_0::IntMult              697      0.00%     59.42% # Number of instructions issued per FU type, per thread (Count)
system.cpu.issuedInstType_0::IntDiv             39239      0.10%     59.52% # Number of instructions issued per FU type, per thread (Count)
system.cpu.issuedInstType_0::FloatAdd         2338578      5.93%     65.45% # Number of instructions issued per FU type, per thread (Count)
system.cpu.issuedInstType_0::FloatCmp               0      0.00%     65.45% # Number of instructions issued per FU type, per thread (Count)
system.cpu.issuedInstType_0::FloatCvt            1617      0.00%     65.46% # Number of instructions issued per FU type, per thread (Count)
system.cpu.issuedInstType_0::FloatMult          65536      0.17%     65.62% # Number of instructions issued per FU type, per thread (Count)
system.cpu.issuedInstType_0::FloatMultAcc            0      0.00%     65.62% # Number of instructions issued per FU type, per thread (Count)
system.cpu.issuedInstType_0::FloatDiv               0      0.00%     65.62% # Number of instructions issued per FU type, per thread (Count)
system.cpu.issuedInstType_0::FloatMisc              0      0.00%     65.62% # Number of instructions issued per FU type, per thread (Count)
system.cpu.issuedInstType_0::FloatSqrt              0      0.00%     65.62% # Number of instructions issued per FU type, per thread (Count)
system.cpu.issuedInstType_0::SimdAdd             7317      0.02%     65.64% # Number of instructions issued per FU type, per thread (Count)
system.cpu.issuedInstType_0::SimdAddAcc             0      0.00%     65.64% # Number of instructions issued per FU type, per thread (Count)
system.cpu.issuedInstType_0::SimdAlu           280064      0.71%     66.35% # Number of instructions issued per FU type, per thread (Count)
system.cpu.issuedInstType_0::SimdCmp               26      0.00%     66.35% # Number of instructions issued per FU type, per thread (Count)
system.cpu.issuedInstType_0::SimdCvt            15767      0.04%     66.39% # Number of instructions issued per FU type, per thread (Count)
system.cpu.issuedInstType_0::SimdMisc           79717      0.20%     66.59% # Number of instructions issued per FU type, per thread (Count)
system.cpu.issuedInstType_0::SimdMult               0      0.00%     66.59% # Number of instructions issued per FU type, per thread (Count)
system.cpu.issuedInstType_0::SimdMultAcc            0      0.00%     66.59% # Number of instructions issued per FU type, per thread (Count)
system.cpu.issuedInstType_0::SimdMatMultAcc            0      0.00%     66.59% # Number of instructions issued per FU type, per thread (Count)
system.cpu.issuedInstType_0::SimdShift           1244      0.00%     66.60% # Number of instructions issued per FU type, per thread (Count)
system.cpu.issuedInstType_0::SimdShiftAcc            0      0.00%     66.60% # Number of instructions issued per FU type, per thread (Count)
system.cpu.issuedInstType_0::SimdDiv                0      0.00%     66.60% # Number of instructions issued per FU type, per thread (Count)
system.cpu.issuedInstType_0::SimdSqrt               0      0.00%     66.60% # Number of instructions issued per FU type, per thread (Count)
system.cpu.issuedInstType_0::SimdFloatAdd      2195464      5.57%     72.17% # Number of instructions issued per FU type, per thread (Count)
system.cpu.issuedInstType_0::SimdFloatAlu            0      0.00%     72.17% # Number of instructions issued per FU type, per thread (Count)
system.cpu.issuedInstType_0::SimdFloatCmp            0      0.00%     72.17% # Number of instructions issued per FU type, per thread (Count)
system.cpu.issuedInstType_0::SimdFloatCvt        98342      0.25%     72.41% # Number of instructions issued per FU type, per thread (Count)
system.cpu.issuedInstType_0::SimdFloatDiv        32773      0.08%     72.50% # Number of instructions issued per FU type, per thread (Count)
system.cpu.issuedInstType_0::SimdFloatMisc            0      0.00%     72.50% # Number of instructions issued per FU type, per thread (Count)
system.cpu.issuedInstType_0::SimdFloatMult      2205936      5.59%     78.09% # Number of instructions issued per FU type, per thread (Count)
system.cpu.issuedInstType_0::SimdFloatMultAcc            0      0.00%     78.09% # Number of instructions issued per FU type, per thread (Count)
system.cpu.issuedInstType_0::SimdFloatMatMultAcc            0      0.00%     78.09% # Number of instructions issued per FU type, per thread (Count)
system.cpu.issuedInstType_0::SimdFloatSqrt            0      0.00%     78.09% # Number of instructions issued per FU type, per thread (Count)
system.cpu.issuedInstType_0::SimdReduceAdd            0      0.00%     78.09% # Number of instructions issued per FU type, per thread (Count)
system.cpu.issuedInstType_0::SimdReduceAlu            0      0.00%     78.09% # Number of instructions issued per FU type, per thread (Count)
system.cpu.issuedInstType_0::SimdReduceCmp            0      0.00%     78.09% # Number of instructions issued per FU type, per thread (Count)
system.cpu.issuedInstType_0::SimdFloatReduceAdd            0      0.00%     78.09% # Number of instructions issued per FU type, per thread (Count)
system.cpu.issuedInstType_0::SimdFloatReduceCmp            0      0.00%     78.09% # Number of instructions issued per FU type, per thread (Count)
system.cpu.issuedInstType_0::SimdAes                0      0.00%     78.09% # Number of instructions issued per FU type, per thread (Count)
system.cpu.issuedInstType_0::SimdAesMix             0      0.00%     78.09% # Number of instructions issued per FU type, per thread (Count)
system.cpu.issuedInstType_0::SimdSha1Hash            0      0.00%     78.09% # Number of instructions issued per FU type, per thread (Count)
system.cpu.issuedInstType_0::SimdSha1Hash2            0      0.00%     78.09% # Number of instructions issued per FU type, per thread (Count)
system.cpu.issuedInstType_0::SimdSha256Hash            0      0.00%     78.09% # Number of instructions issued per FU type, per thread (Count)
system.cpu.issuedInstType_0::SimdSha256Hash2            0      0.00%     78.09% # Number of instructions issued per FU type, per thread (Count)
system.cpu.issuedInstType_0::SimdShaSigma2            0      0.00%     78.09% # Number of instructions issued per FU type, per thread (Count)
system.cpu.issuedInstType_0::SimdShaSigma3            0      0.00%     78.09% # Number of instructions issued per FU type, per thread (Count)
system.cpu.issuedInstType_0::SimdSha3               0      0.00%     78.09% # Number of instructions issued per FU type, per thread (Count)
system.cpu.issuedInstType_0::SimdSm4e               0      0.00%     78.09% # Number of instructions issued per FU type, per thread (Count)
system.cpu.issuedInstType_0::SimdCrc                0      0.00%     78.09% # Number of instructions issued per FU type, per thread (Count)
system.cpu.issuedInstType_0::SimdPredAlu            0      0.00%     78.09% # Number of instructions issued per FU type, per thread (Count)
system.cpu.issuedInstType_0::SimdDotProd            0      0.00%     78.09% # Number of instructions issued per FU type, per thread (Count)
system.cpu.issuedInstType_0::Matrix                 0      0.00%     78.09% # Number of instructions issued per FU type, per thread (Count)
system.cpu.issuedInstType_0::MatrixMov              0      0.00%     78.09% # Number of instructions issued per FU type, per thread (Count)
system.cpu.issuedInstType_0::MatrixOP               0      0.00%     78.09% # Number of instructions issued per FU type, per thread (Count)
system.cpu.issuedInstType_0::MemRead          1269199      3.22%     81.31% # Number of instructions issued per FU type, per thread (Count)
system.cpu.issuedInstType_0::MemWrite          444143      1.13%     82.44% # Number of instructions issued per FU type, per thread (Count)
system.cpu.issuedInstType_0::FloatMemRead      4682153     11.87%     94.31% # Number of instructions issued per FU type, per thread (Count)
system.cpu.issuedInstType_0::FloatMemWrite      2244050      5.69%    100.00% # Number of instructions issued per FU type, per thread (Count)
system.cpu.issuedInstType_0::InstPrefetch            0      0.00%    100.00% # Number of instructions issued per FU type, per thread (Count)
system.cpu.issuedInstType_0::SimdUnitStrideLoad            0      0.00%    100.00% # Number of instructions issued per FU type, per thread (Count)
system.cpu.issuedInstType_0::SimdUnitStrideStore            0      0.00%    100.00% # Number of instructions issued per FU type, per thread (Count)
system.cpu.issuedInstType_0::SimdUnitStrideMaskLoad            0      0.00%    100.00% # Number of instructions issued per FU type, per thread (Count)
system.cpu.issuedInstType_0::SimdUnitStrideMaskStore            0      0.00%    100.00% # Number of instructions issued per FU type, per thread (Count)
system.cpu.issuedInstType_0::SimdStridedLoad            0      0.00%    100.00% # Number of instructions issued per FU type, per thread (Count)
system.cpu.issuedInstType_0::SimdStridedStore            0      0.00%    100.00% # Number of instructions issued per FU type, per thread (Count)
system.cpu.issuedInstType_0::SimdIndexedLoad            0      0.00%    100.00% # Number of instructions issued per FU type, per thread (Count)
system.cpu.issuedInstType_0::SimdIndexedStore            0      0.00%    100.00% # Number of instructions issued per FU type, per thread (Count)
system.cpu.issuedInstType_0::SimdWholeRegisterLoad            0      0.00%    100.00% # Number of instructions issued per FU type, per thread (Count)
system.cpu.issuedInstType_0::SimdWholeRegisterStore            0      0.00%    100.00% # Number of instructions issued per FU type, per thread (Count)
system.cpu.issuedInstType_0::SimdUnitStrideFaultOnlyFirstLoad            0      0.00%    100.00% # Number of instructions issued per FU type, per thread (Count)
system.cpu.issuedInstType_0::SimdUnitStrideSegmentedLoad            0      0.00%    100.00% # Number of instructions issued per FU type, per thread (Count)
system.cpu.issuedInstType_0::SimdUnitStrideSegmentedStore            0      0.00%    100.00% # Number of instructions issued per FU type, per thread (Count)
system.cpu.issuedInstType_0::SimdUnitStrideSegmentedFaultOnlyFirstLoad            0      0.00%    100.00% # Number of instructions issued per FU type, per thread (Count)
system.cpu.issuedInstType_0::SimdStrideSegmentedLoad            0      0.00%    100.00% # Number of instructions issued per FU type, per thread (Count)
system.cpu.issuedInstType_0::SimdStrideSegmentedStore            0      0.00%    100.00% # Number of instructions issued per FU type, per thread (Count)
system.cpu.issuedInstType_0::SimdExt                0      0.00%    100.00% # Number of instructions issued per FU type, per thread (Count)
system.cpu.issuedInstType_0::SimdFloatExt            0      0.00%    100.00% # Number of instructions issued per FU type, per thread (Count)
system.cpu.issuedInstType_0::SimdConfig             0      0.00%    100.00% # Number of instructions issued per FU type, per thread (Count)
system.cpu.issuedInstType_0::SimdBf16Add            0      0.00%    100.00% # Number of instructions issued per FU type, per thread (Count)
system.cpu.issuedInstType_0::SimdBf16Cmp            0      0.00%    100.00% # Number of instructions issued per FU type, per thread (Count)
system.cpu.issuedInstType_0::SimdBf16Cvt            0      0.00%    100.00% # Number of instructions issued per FU type, per thread (Count)
system.cpu.issuedInstType_0::SimdBf16DotProd            0      0.00%    100.00% # Number of instructions issued per FU type, per thread (Count)
system.cpu.issuedInstType_0::SimdBf16MatMultAcc            0      0.00%    100.00% # Number of instructions issued per FU type, per thread (Count)
system.cpu.issuedInstType_0::SimdBf16Mult            0      0.00%    100.00% # Number of instructions issued per FU type, per thread (Count)
system.cpu.issuedInstType_0::SimdBf16MultAcc            0      0.00%    100.00% # Number of instructions issued per FU type, per thread (Count)
system.cpu.issuedInstType_0::Bf16Cvt                0      0.00%    100.00% # Number of instructions issued per FU type, per thread (Count)
system.cpu.issuedInstType_0::System                 0      0.00%    100.00% # Number of instructions issued per FU type, per thread (Count)
system.cpu.issuedInstType_0::total           39434556                       # Number of instructions issued per FU type, per thread (Count)
system.cpu.issueRate                         2.340021                       # Inst issue rate ((Count/Cycle))
system.cpu.fuBusy                              248661                       # FU busy when requested (Count)
system.cpu.fuBusyRate                        0.006306                       # FU busy rate (busy events/executed inst) ((Count/Count))
system.cpu.intInstQueueReads                 66878025                       # Number of integer instruction queue reads (Count)
system.cpu.intInstQueueWrites                30869932                       # Number of integer instruction queue writes (Count)
system.cpu.intInstQueueWakeupAccesses        24676067                       # Number of integer instruction queue wakeup accesses (Count)
system.cpu.fpInstQueueReads                  28854757                       # Number of floating instruction queue reads (Count)
system.cpu.fpInstQueueWrites                 15350008                       # Number of floating instruction queue writes (Count)
system.cpu.fpInstQueueWakeupAccesses         14268702                       # Number of floating instruction queue wakeup accesses (Count)
system.cpu.vecInstQueueReads                        0                       # Number of vector instruction queue reads (Count)
system.cpu.vecInstQueueWrites                       0                       # Number of vector instruction queue writes (Count)
system.cpu.vecInstQueueWakeupAccesses               0                       # Number of vector instruction queue wakeup accesses (Count)
system.cpu.intAluAccesses                    25082069                       # Number of integer alu accesses (Count)
system.cpu.fpAluAccesses                     14470701                       # Number of floating point alu accesses (Count)
system.cpu.vecAluAccesses                           0                       # Number of vector alu accesses (Count)
system.cpu.numRecvResp                        8461352                       # Number of received responses (Count)
system.cpu.numRecvRespBytes                  65883146                       # Number of received response bytes (Byte)
system.cpu.recvRespAvgBW                         3.91                       # Average bandwidth of received responses ((Byte/Cycle))
system.cpu.recvRespAvgSize                       7.79                       # Average packet size per received response ((Byte/Count))
system.cpu.recvRespAvgRate                       0.50                       # Average rate of received responses per cycle ((Count/Cycle))
system.cpu.recvRespAvgRetryRate                  0.00                       # Average retry rate per received response ((Count/Count))
system.cpu.numSendRetryResp                         0                       # Number of retry responses sent (Count)
system.cpu.numSquashedInsts                    411484                       # Number of squashed instructions skipped in execute (Count)
system.cpu.numSwp                                   0                       # Number of swp insts executed (Count)
system.cpu.timesIdled                            2188                       # Number of times that the entire CPU went into an idle state and unscheduled itself (Count)
system.cpu.idleCycles                          246284                       # Total number of cycles that the CPU has spent unscheduled due to idling (Cycle)
system.cpu.MemDepUnit__0.insertedLoads        6280771                       # Number of loads inserted to the mem dependence unit. (Count)
system.cpu.MemDepUnit__0.insertedStores       2902589                       # Number of stores inserted to the mem dependence unit. (Count)
system.cpu.MemDepUnit__0.conflictingLoads      2409153                       # Number of conflicting loads. (Count)
system.cpu.MemDepUnit__0.conflictingStores      2253090                       # Number of conflicting stores. (Count)
system.cpu.MemDepUnit__1.insertedLoads              0                       # Number of loads inserted to the mem dependence unit. (Count)
system.cpu.MemDepUnit__1.insertedStores             0                       # Number of stores inserted to the mem dependence unit. (Count)
system.cpu.MemDepUnit__1.conflictingLoads            0                       # Number of conflicting loads. (Count)
system.cpu.MemDepUnit__1.conflictingStores            0                       # Number of conflicting stores. (Count)
system.cpu.MemDepUnit__2.insertedLoads              0                       # Number of loads inserted to the mem dependence unit. (Count)
system.cpu.MemDepUnit__2.insertedStores             0                       # Number of stores inserted to the mem dependence unit. (Count)
system.cpu.MemDepUnit__2.conflictingLoads            0                       # Number of conflicting loads. (Count)
system.cpu.MemDepUnit__2.conflictingStores            0                       # Number of conflicting stores. (Count)
system.cpu.MemDepUnit__3.insertedLoads              0                       # Number of loads inserted to the mem dependence unit. (Count)
system.cpu.MemDepUnit__3.insertedStores             0                       # Number of stores inserted to the mem dependence unit. (Count)
system.cpu.MemDepUnit__3.conflictingLoads            0                       # Number of conflicting loads. (Count)
system.cpu.MemDepUnit__3.conflictingStores            0                       # Number of conflicting stores. (Count)
system.cpu.bac.fetchTargets                         0                       # Number of fetch targets created  (Count)
system.cpu.bac.branches                       3870831                       # Number of branches that BAC encountered (Count)
system.cpu.bac.predTakenBranches              3319724                       # Number of branches that BAC predicted taken. (Count)
system.cpu.bac.branchesNotLastuOp                   0                       # Number of branches that fetch encountered which are not the last uOp within a macrooperation. Jump to itself. (Count)
system.cpu.bac.branchMisspredict               119246                       # Number of mispredicted branches (Count)
system.cpu.bac.noBranchMisspredict               1573                       # Number of non-branch instructions mispredicted (Count)
system.cpu.bac.squashBranchDecode                1269                       # Number of branches squashed from decode (Count)
system.cpu.bac.squashBranchCommit              117977                       # Number of branches squashed from commit (Count)
system.cpu.bac.preDecUpdate::NoBranch               0                       # Number of branches extracted from the predecoder (Count)
system.cpu.bac.preDecUpdate::Return                 0                       # Number of branches extracted from the predecoder (Count)
system.cpu.bac.preDecUpdate::CallDirect             0                       # Number of branches extracted from the predecoder (Count)
system.cpu.bac.preDecUpdate::CallIndirect            0                       # Number of branches extracted from the predecoder (Count)
system.cpu.bac.preDecUpdate::DirectCond             0                       # Number of branches extracted from the predecoder (Count)
system.cpu.bac.preDecUpdate::DirectUncond            0                       # Number of branches extracted from the predecoder (Count)
system.cpu.bac.preDecUpdate::IndirectCond            0                       # Number of branches extracted from the predecoder (Count)
system.cpu.bac.preDecUpdate::IndirectUncond            0                       # Number of branches extracted from the predecoder (Count)
system.cpu.bac.preDecUpdate::total                  0                       # Number of branches extracted from the predecoder (Count)
system.cpu.bac.noHistByType::NoBranch               0                       # Number and type of branches that were undetected by the BPU. (Count)
system.cpu.bac.noHistByType::Return                 0                       # Number and type of branches that were undetected by the BPU. (Count)
system.cpu.bac.noHistByType::CallDirect             0                       # Number and type of branches that were undetected by the BPU. (Count)
system.cpu.bac.noHistByType::CallIndirect            0                       # Number and type of branches that were undetected by the BPU. (Count)
system.cpu.bac.noHistByType::DirectCond             0                       # Number and type of branches that were undetected by the BPU. (Count)
system.cpu.bac.noHistByType::DirectUncond            0                       # Number and type of branches that were undetected by the BPU. (Count)
system.cpu.bac.noHistByType::IndirectCond            0                       # Number and type of branches that were undetected by the BPU. (Count)
system.cpu.bac.noHistByType::IndirectUncond            0                       # Number and type of branches that were undetected by the BPU. (Count)
system.cpu.bac.noHistByType::total                  0                       # Number and type of branches that were undetected by the BPU. (Count)
system.cpu.bac.typeMissmatch                        0                       # Number branches where the branch type miss match (Count)
system.cpu.bac.multiBranchInst                      0                       # Number branches because its not the last branch. (Count)
system.cpu.bac.ftSizeDist::samples                  0                       # Number of bytes per fetch target (Count)
system.cpu.bac.ftSizeDist::mean                   nan                       # Number of bytes per fetch target (Count)
system.cpu.bac.ftSizeDist::stdev                  nan                       # Number of bytes per fetch target (Count)
system.cpu.bac.ftSizeDist::underflows               0                       # Number of bytes per fetch target (Count)
system.cpu.bac.ftSizeDist::0-3                      0                       # Number of bytes per fetch target (Count)
system.cpu.bac.ftSizeDist::4-7                      0                       # Number of bytes per fetch target (Count)
system.cpu.bac.ftSizeDist::8-11                     0                       # Number of bytes per fetch target (Count)
system.cpu.bac.ftSizeDist::12-15                    0                       # Number of bytes per fetch target (Count)
system.cpu.bac.ftSizeDist::16-19                    0                       # Number of bytes per fetch target (Count)
system.cpu.bac.ftSizeDist::20-23                    0                       # Number of bytes per fetch target (Count)
system.cpu.bac.ftSizeDist::24-27                    0                       # Number of bytes per fetch target (Count)
system.cpu.bac.ftSizeDist::28-31                    0                       # Number of bytes per fetch target (Count)
system.cpu.bac.ftSizeDist::32                       0                       # Number of bytes per fetch target (Count)
system.cpu.bac.ftSizeDist::overflows                0                       # Number of bytes per fetch target (Count)
system.cpu.bac.ftSizeDist::min_value                0                       # Number of bytes per fetch target (Count)
system.cpu.bac.ftSizeDist::max_value                0                       # Number of bytes per fetch target (Count)
system.cpu.bac.ftSizeDist::total                    0                       # Number of bytes per fetch target (Count)
system.cpu.bac.ftNumber::samples                    0                       # Number of fetch target inserted to the FTQ per cycle (Count)
system.cpu.bac.ftNumber::mean                     nan                       # Number of fetch target inserted to the FTQ per cycle (Count)
system.cpu.bac.ftNumber::stdev                    nan                       # Number of fetch target inserted to the FTQ per cycle (Count)
system.cpu.bac.ftNumber::underflows                 0                       # Number of fetch target inserted to the FTQ per cycle (Count)
system.cpu.bac.ftNumber::0                          0                       # Number of fetch target inserted to the FTQ per cycle (Count)
system.cpu.bac.ftNumber::1                          0                       # Number of fetch target inserted to the FTQ per cycle (Count)
system.cpu.bac.ftNumber::2                          0                       # Number of fetch target inserted to the FTQ per cycle (Count)
system.cpu.bac.ftNumber::3                          0                       # Number of fetch target inserted to the FTQ per cycle (Count)
system.cpu.bac.ftNumber::4                          0                       # Number of fetch target inserted to the FTQ per cycle (Count)
system.cpu.bac.ftNumber::overflows                  0                       # Number of fetch target inserted to the FTQ per cycle (Count)
system.cpu.bac.ftNumber::min_value                  0                       # Number of fetch target inserted to the FTQ per cycle (Count)
system.cpu.bac.ftNumber::max_value                  0                       # Number of fetch target inserted to the FTQ per cycle (Count)
system.cpu.bac.ftNumber::total                      0                       # Number of fetch target inserted to the FTQ per cycle (Count)
system.cpu.branchPred.lookups_0::NoBranch         2602      0.07%      0.07% # Number of BP lookups (Count)
system.cpu.branchPred.lookups_0::Return         47715      1.23%      1.30% # Number of BP lookups (Count)
system.cpu.branchPred.lookups_0::CallDirect        52702      1.36%      2.66% # Number of BP lookups (Count)
system.cpu.branchPred.lookups_0::CallIndirect         1254      0.03%      2.69% # Number of BP lookups (Count)
system.cpu.branchPred.lookups_0::DirectCond      3726931     96.28%     98.98% # Number of BP lookups (Count)
system.cpu.branchPred.lookups_0::DirectUncond        28602      0.74%     99.72% # Number of BP lookups (Count)
system.cpu.branchPred.lookups_0::IndirectCond            0      0.00%     99.72% # Number of BP lookups (Count)
system.cpu.branchPred.lookups_0::IndirectUncond        11025      0.28%    100.00% # Number of BP lookups (Count)
system.cpu.branchPred.lookups_0::total        3870831                       # Number of BP lookups (Count)
system.cpu.branchPred.squashes_0::NoBranch         2502      0.31%      0.31% # Number of branches that got squashed (completely removed) as an earlier branch was mispredicted. (Count)
system.cpu.branchPred.squashes_0::Return         3244      0.40%      0.71% # Number of branches that got squashed (completely removed) as an earlier branch was mispredicted. (Count)
system.cpu.branchPred.squashes_0::CallDirect         8881      1.09%      1.80% # Number of branches that got squashed (completely removed) as an earlier branch was mispredicted. (Count)
system.cpu.branchPred.squashes_0::CallIndirect          600      0.07%      1.87% # Number of branches that got squashed (completely removed) as an earlier branch was mispredicted. (Count)
system.cpu.branchPred.squashes_0::DirectCond       781038     96.02%     97.89% # Number of branches that got squashed (completely removed) as an earlier branch was mispredicted. (Count)
system.cpu.branchPred.squashes_0::DirectUncond        11108      1.37%     99.25% # Number of branches that got squashed (completely removed) as an earlier branch was mispredicted. (Count)
system.cpu.branchPred.squashes_0::IndirectCond            0      0.00%     99.25% # Number of branches that got squashed (completely removed) as an earlier branch was mispredicted. (Count)
system.cpu.branchPred.squashes_0::IndirectUncond         6067      0.75%    100.00% # Number of branches that got squashed (completely removed) as an earlier branch was mispredicted. (Count)
system.cpu.branchPred.squashes_0::total        813440                       # Number of branches that got squashed (completely removed) as an earlier branch was mispredicted. (Count)
system.cpu.branchPred.corrected_0::NoBranch          197      0.17%      0.17% # Number of branches that got corrected but not yet commited. Branches get corrected by decode or after execute. Also a branch misprediction can be detected out-of-order. Therefore, a corrected branch might not end up beeing committed in case an even earlier branch was mispredicted (Count)
system.cpu.branchPred.corrected_0::Return           21      0.02%      0.18% # Number of branches that got corrected but not yet commited. Branches get corrected by decode or after execute. Also a branch misprediction can be detected out-of-order. Therefore, a corrected branch might not end up beeing committed in case an even earlier branch was mispredicted (Count)
system.cpu.branchPred.corrected_0::CallDirect          629      0.53%      0.71% # Number of branches that got corrected but not yet commited. Branches get corrected by decode or after execute. Also a branch misprediction can be detected out-of-order. Therefore, a corrected branch might not end up beeing committed in case an even earlier branch was mispredicted (Count)
system.cpu.branchPred.corrected_0::CallIndirect          247      0.21%      0.92% # Number of branches that got corrected but not yet commited. Branches get corrected by decode or after execute. Also a branch misprediction can be detected out-of-order. Therefore, a corrected branch might not end up beeing committed in case an even earlier branch was mispredicted (Count)
system.cpu.branchPred.corrected_0::DirectCond       116659     97.83%     98.75% # Number of branches that got corrected but not yet commited. Branches get corrected by decode or after execute. Also a branch misprediction can be detected out-of-order. Therefore, a corrected branch might not end up beeing committed in case an even earlier branch was mispredicted (Count)
system.cpu.branchPred.corrected_0::DirectUncond          549      0.46%     99.21% # Number of branches that got corrected but not yet commited. Branches get corrected by decode or after execute. Also a branch misprediction can be detected out-of-order. Therefore, a corrected branch might not end up beeing committed in case an even earlier branch was mispredicted (Count)
system.cpu.branchPred.corrected_0::IndirectCond            0      0.00%     99.21% # Number of branches that got corrected but not yet commited. Branches get corrected by decode or after execute. Also a branch misprediction can be detected out-of-order. Therefore, a corrected branch might not end up beeing committed in case an even earlier branch was mispredicted (Count)
system.cpu.branchPred.corrected_0::IndirectUncond          944      0.79%    100.00% # Number of branches that got corrected but not yet commited. Branches get corrected by decode or after execute. Also a branch misprediction can be detected out-of-order. Therefore, a corrected branch might not end up beeing committed in case an even earlier branch was mispredicted (Count)
system.cpu.branchPred.corrected_0::total       119246                       # Number of branches that got corrected but not yet commited. Branches get corrected by decode or after execute. Also a branch misprediction can be detected out-of-order. Therefore, a corrected branch might not end up beeing committed in case an even earlier branch was mispredicted (Count)
system.cpu.branchPred.earlyResteers_0::NoBranch            0      0.00%      0.00% # Number of branches that got redirected after decode. (Count)
system.cpu.branchPred.earlyResteers_0::Return            0      0.00%      0.00% # Number of branches that got redirected after decode. (Count)
system.cpu.branchPred.earlyResteers_0::CallDirect          629     49.57%     49.57% # Number of branches that got redirected after decode. (Count)
system.cpu.branchPred.earlyResteers_0::CallIndirect            0      0.00%     49.57% # Number of branches that got redirected after decode. (Count)
system.cpu.branchPred.earlyResteers_0::DirectCond           91      7.17%     56.74% # Number of branches that got redirected after decode. (Count)
system.cpu.branchPred.earlyResteers_0::DirectUncond          549     43.26%    100.00% # Number of branches that got redirected after decode. (Count)
system.cpu.branchPred.earlyResteers_0::IndirectCond            0      0.00%    100.00% # Number of branches that got redirected after decode. (Count)
system.cpu.branchPred.earlyResteers_0::IndirectUncond            0      0.00%    100.00% # Number of branches that got redirected after decode. (Count)
system.cpu.branchPred.earlyResteers_0::total         1269                       # Number of branches that got redirected after decode. (Count)
system.cpu.branchPred.committed_0::NoBranch          100      0.00%      0.00% # Number of branches finally committed  (Count)
system.cpu.branchPred.committed_0::Return        44471      1.45%      1.46% # Number of branches finally committed  (Count)
system.cpu.branchPred.committed_0::CallDirect        43821      1.43%      2.89% # Number of branches finally committed  (Count)
system.cpu.branchPred.committed_0::CallIndirect          654      0.02%      2.91% # Number of branches finally committed  (Count)
system.cpu.branchPred.committed_0::DirectCond      2945892     96.35%     99.27% # Number of branches finally committed  (Count)
system.cpu.branchPred.committed_0::DirectUncond        17494      0.57%     99.84% # Number of branches finally committed  (Count)
system.cpu.branchPred.committed_0::IndirectCond            0      0.00%     99.84% # Number of branches finally committed  (Count)
system.cpu.branchPred.committed_0::IndirectUncond         4958      0.16%    100.00% # Number of branches finally committed  (Count)
system.cpu.branchPred.committed_0::total      3057390                       # Number of branches finally committed  (Count)
system.cpu.branchPred.mispredicted_0::NoBranch          100      0.09%      0.09% # Number of committed branches that were mispredicted. (Count)
system.cpu.branchPred.mispredicted_0::Return            0      0.00%      0.09% # Number of committed branches that were mispredicted. (Count)
system.cpu.branchPred.mispredicted_0::CallDirect          408      0.35%      0.44% # Number of committed branches that were mispredicted. (Count)
system.cpu.branchPred.mispredicted_0::CallIndirect          223      0.19%      0.63% # Number of committed branches that were mispredicted. (Count)
system.cpu.branchPred.mispredicted_0::DirectCond       113605     98.35%     98.98% # Number of committed branches that were mispredicted. (Count)
system.cpu.branchPred.mispredicted_0::DirectUncond          321      0.28%     99.26% # Number of committed branches that were mispredicted. (Count)
system.cpu.branchPred.mispredicted_0::IndirectCond            0      0.00%     99.26% # Number of committed branches that were mispredicted. (Count)
system.cpu.branchPred.mispredicted_0::IndirectUncond          854      0.74%    100.00% # Number of committed branches that were mispredicted. (Count)
system.cpu.branchPred.mispredicted_0::total       115511                       # Number of committed branches that were mispredicted. (Count)
system.cpu.branchPred.mispredictDueToPredictor_0::NoBranch          100      0.09%      0.09% # Number of committed branches that were mispredicted by the predictor. (Count)
system.cpu.branchPred.mispredictDueToPredictor_0::Return            0      0.00%      0.09% # Number of committed branches that were mispredicted by the predictor. (Count)
system.cpu.branchPred.mispredictDueToPredictor_0::CallDirect            0      0.00%      0.09% # Number of committed branches that were mispredicted by the predictor. (Count)
system.cpu.branchPred.mispredictDueToPredictor_0::CallIndirect            0      0.00%      0.09% # Number of committed branches that were mispredicted by the predictor. (Count)
system.cpu.branchPred.mispredictDueToPredictor_0::DirectCond       112651     99.91%    100.00% # Number of committed branches that were mispredicted by the predictor. (Count)
system.cpu.branchPred.mispredictDueToPredictor_0::DirectUncond            0      0.00%    100.00% # Number of committed branches that were mispredicted by the predictor. (Count)
system.cpu.branchPred.mispredictDueToPredictor_0::IndirectCond            0      0.00%    100.00% # Number of committed branches that were mispredicted by the predictor. (Count)
system.cpu.branchPred.mispredictDueToPredictor_0::IndirectUncond            0      0.00%    100.00% # Number of committed branches that were mispredicted by the predictor. (Count)
system.cpu.branchPred.mispredictDueToPredictor_0::total       112751                       # Number of committed branches that were mispredicted by the predictor. (Count)
system.cpu.branchPred.mispredictDueToBTBMiss_0::NoBranch            0      0.00%      0.00% # Number of committed branches that were mispredicted because of a BTB miss. (Count)
system.cpu.branchPred.mispredictDueToBTBMiss_0::Return            0      0.00%      0.00% # Number of committed branches that were mispredicted because of a BTB miss. (Count)
system.cpu.branchPred.mispredictDueToBTBMiss_0::CallDirect          408     14.78%     14.78% # Number of committed branches that were mispredicted because of a BTB miss. (Count)
system.cpu.branchPred.mispredictDueToBTBMiss_0::CallIndirect          223      8.08%     22.86% # Number of committed branches that were mispredicted because of a BTB miss. (Count)
system.cpu.branchPred.mispredictDueToBTBMiss_0::DirectCond          954     34.57%     57.43% # Number of committed branches that were mispredicted because of a BTB miss. (Count)
system.cpu.branchPred.mispredictDueToBTBMiss_0::DirectUncond          321     11.63%     69.06% # Number of committed branches that were mispredicted because of a BTB miss. (Count)
system.cpu.branchPred.mispredictDueToBTBMiss_0::IndirectCond            0      0.00%     69.06% # Number of committed branches that were mispredicted because of a BTB miss. (Count)
system.cpu.branchPred.mispredictDueToBTBMiss_0::IndirectUncond          854     30.94%    100.00% # Number of committed branches that were mispredicted because of a BTB miss. (Count)
system.cpu.branchPred.mispredictDueToBTBMiss_0::total         2760                       # Number of committed branches that were mispredicted because of a BTB miss. (Count)
system.cpu.branchPred.targetProvider_0::NoTarget       551107     14.24%     14.24% # The component providing the target for taken branches (Count)
system.cpu.branchPred.targetProvider_0::BTB      3266845     84.40%     98.63% # The component providing the target for taken branches (Count)
system.cpu.branchPred.targetProvider_0::RAS        47706      1.23%     99.87% # The component providing the target for taken branches (Count)
system.cpu.branchPred.targetProvider_0::Indirect         5173      0.13%    100.00% # The component providing the target for taken branches (Count)
system.cpu.branchPred.targetProvider_0::total      3870831                       # The component providing the target for taken branches (Count)
system.cpu.branchPred.targetWrong_0::NoBranch        25403     21.62%     21.62% # Number of branches where the target was incorrect or not available at prediction time. (Count)
system.cpu.branchPred.targetWrong_0::Return        92003     78.30%     99.92% # Number of branches where the target was incorrect or not available at prediction time. (Count)
system.cpu.branchPred.targetWrong_0::CallDirect           21      0.02%     99.94% # Number of branches where the target was incorrect or not available at prediction time. (Count)
system.cpu.branchPred.targetWrong_0::CallIndirect           74      0.06%    100.00% # Number of branches where the target was incorrect or not available at prediction time. (Count)
system.cpu.branchPred.targetWrong_0::DirectCond            0      0.00%    100.00% # Number of branches where the target was incorrect or not available at prediction time. (Count)
system.cpu.branchPred.targetWrong_0::DirectUncond            0      0.00%    100.00% # Number of branches where the target was incorrect or not available at prediction time. (Count)
system.cpu.branchPred.targetWrong_0::IndirectCond            0      0.00%    100.00% # Number of branches where the target was incorrect or not available at prediction time. (Count)
system.cpu.branchPred.targetWrong_0::IndirectUncond            0      0.00%    100.00% # Number of branches where the target was incorrect or not available at prediction time. (Count)
system.cpu.branchPred.targetWrong_0::total       117501                       # Number of branches where the target was incorrect or not available at prediction time. (Count)
system.cpu.branchPred.condPredicted           3726931                       # Number of conditional branches predicted (Count)
system.cpu.branchPred.condPredictedTaken      3187099                       # Number of conditional branches predicted as taken (Count)
system.cpu.branchPred.condIncorrect            115511                       # Number of conditional branches incorrect (Count)
system.cpu.branchPred.predTakenBTBMiss           1600                       # Number of branches predicted taken but missed in BTB (Count)
system.cpu.branchPred.BTBLookups              3870831                       # Number of BTB lookups (Count)
system.cpu.branchPred.BTBUpdates                25374                       # Number of BTB updates (Count)
system.cpu.branchPred.BTBHits                 3543417                       # Number of BTB hits (Count)
system.cpu.branchPred.BTBHitRatio            0.915415                       # BTB Hit Ratio (Ratio)
system.cpu.branchPred.BTBMispredicted            2368                       # Number BTB mispredictions. No target found or target wrong (Count)
system.cpu.branchPred.indirectLookups           12279                       # Number of indirect predictor lookups. (Count)
system.cpu.branchPred.indirectHits               5173                       # Number of indirect target hits. (Count)
system.cpu.branchPred.indirectMisses             7106                       # Number of indirect misses. (Count)
system.cpu.branchPred.indirectMispredicted            0                       # Number of mispredicted indirect branches. (Count)
system.cpu.branchPred.btb.lookups::NoBranch         2602      0.07%      0.07% # Number of BTB lookups (Count)
system.cpu.branchPred.btb.lookups::Return        47715      1.23%      1.30% # Number of BTB lookups (Count)
system.cpu.branchPred.btb.lookups::CallDirect        52702      1.36%      2.66% # Number of BTB lookups (Count)
system.cpu.branchPred.btb.lookups::CallIndirect         1254      0.03%      2.69% # Number of BTB lookups (Count)
system.cpu.branchPred.btb.lookups::DirectCond      3726931     96.28%     98.98% # Number of BTB lookups (Count)
system.cpu.branchPred.btb.lookups::DirectUncond        28602      0.74%     99.72% # Number of BTB lookups (Count)
system.cpu.branchPred.btb.lookups::IndirectCond            0      0.00%     99.72% # Number of BTB lookups (Count)
system.cpu.branchPred.btb.lookups::IndirectUncond        11025      0.28%    100.00% # Number of BTB lookups (Count)
system.cpu.branchPred.btb.lookups::total      3870831                       # Number of BTB lookups (Count)
system.cpu.branchPred.btb.misses::NoBranch          155      0.05%      0.05% # Number of BTB misses (Count)
system.cpu.branchPred.btb.misses::Return        47715     14.57%     14.62% # Number of BTB misses (Count)
system.cpu.branchPred.btb.misses::CallDirect          918      0.28%     14.90% # Number of BTB misses (Count)
system.cpu.branchPred.btb.misses::CallIndirect         1254      0.38%     15.28% # Number of BTB misses (Count)
system.cpu.branchPred.btb.misses::DirectCond       265556     81.11%     96.39% # Number of BTB misses (Count)
system.cpu.branchPred.btb.misses::DirectUncond          791      0.24%     96.63% # Number of BTB misses (Count)
system.cpu.branchPred.btb.misses::IndirectCond            0      0.00%     96.63% # Number of BTB misses (Count)
system.cpu.branchPred.btb.misses::IndirectUncond        11025      3.37%    100.00% # Number of BTB misses (Count)
system.cpu.branchPred.btb.misses::total        327414                       # Number of BTB misses (Count)
system.cpu.branchPred.btb.updates::NoBranch          197      0.78%      0.78% # Number of BTB updates (Count)
system.cpu.branchPred.btb.updates::Return            0      0.00%      0.78% # Number of BTB updates (Count)
system.cpu.branchPred.btb.updates::CallDirect          629      2.48%      3.26% # Number of BTB updates (Count)
system.cpu.branchPred.btb.updates::CallIndirect            0      0.00%      3.26% # Number of BTB updates (Count)
system.cpu.branchPred.btb.updates::DirectCond        23999     94.58%     97.84% # Number of BTB updates (Count)
system.cpu.branchPred.btb.updates::DirectUncond          549      2.16%    100.00% # Number of BTB updates (Count)
system.cpu.branchPred.btb.updates::IndirectCond            0      0.00%    100.00% # Number of BTB updates (Count)
system.cpu.branchPred.btb.updates::IndirectUncond            0      0.00%    100.00% # Number of BTB updates (Count)
system.cpu.branchPred.btb.updates::total        25374                       # Number of BTB updates (Count)
system.cpu.branchPred.btb.mispredict::NoBranch          197      0.78%      0.78% # Number of BTB mispredictions. No target found or target wrong. (Count)
system.cpu.branchPred.btb.mispredict::Return            0      0.00%      0.78% # Number of BTB mispredictions. No target found or target wrong. (Count)
system.cpu.branchPred.btb.mispredict::CallDirect          629      2.48%      3.26% # Number of BTB mispredictions. No target found or target wrong. (Count)
system.cpu.branchPred.btb.mispredict::CallIndirect            0      0.00%      3.26% # Number of BTB mispredictions. No target found or target wrong. (Count)
system.cpu.branchPred.btb.mispredict::DirectCond        23999     94.58%     97.84% # Number of BTB mispredictions. No target found or target wrong. (Count)
system.cpu.branchPred.btb.mispredict::DirectUncond          549      2.16%    100.00% # Number of BTB mispredictions. No target found or target wrong. (Count)
system.cpu.branchPred.btb.mispredict::IndirectCond            0      0.00%    100.00% # Number of BTB mispredictions. No target found or target wrong. (Count)
system.cpu.branchPred.btb.mispredict::IndirectUncond            0      0.00%    100.00% # Number of BTB mispredictions. No target found or target wrong. (Count)
system.cpu.branchPred.btb.mispredict::total        25374                       # Number of BTB mispredictions. No target found or target wrong. (Count)
system.cpu.branchPred.btb.power_state.pwrStateResidencyTicks::UNDEFINED   7330716135                       # Cumulative time (in ticks) in various power states (Tick)
system.cpu.branchPred.indirectBranchPred.lookups        12279                       # Number of lookups (Count)
system.cpu.branchPred.indirectBranchPred.hits         5173                       # Number of hits of a tag (Count)
system.cpu.branchPred.indirectBranchPred.misses         7106                       # Number of misses (Count)
system.cpu.branchPred.indirectBranchPred.targetRecords         1191                       # Number of targets that where recorded/installed in the cache (Count)
system.cpu.branchPred.indirectBranchPred.indirectRecords        13470                       # Number of indirect branches/calls recorded in the indirect hist (Count)
system.cpu.branchPred.indirectBranchPred.speculativeOverflows            1                       # Number of times more than the allowed capacity for speculative branches/calls where in flight and destroy the path history (Count)
system.cpu.branchPred.ras.pushes                57200                       # Number of times a PC was pushed onto the RAS (Count)
system.cpu.branchPred.ras.pops                  57196                       # Number of times a PC was poped from the RAS (Count)
system.cpu.branchPred.ras.squashes              12725                       # Number of times the stack operation was squashed due to wrong speculation. (Count)
system.cpu.branchPred.ras.used                  44471                       # Number of times the RAS is the provider (Count)
system.cpu.branchPred.ras.correct               44471                       # Number of times the RAS is the provider and the prediction is correct (Count)
system.cpu.branchPred.ras.incorrect                 0                       # Number of times the RAS is the provider and the prediction is wrong (Count)
system.cpu.commit.status::running            16598027     99.95%     99.95% # Number of cycles commit is running (Cycle)
system.cpu.commit.status::idle                      1      0.00%     99.95% # Number of cycles commit is idle (Cycle)
system.cpu.commit.status::trapPending            7910      0.05%    100.00% # Number of cycles commit is processing a trap (Cycle)
system.cpu.commit.commitSquashedInsts         4781405                       # The number of squashed insts skipped by commit (Count)
system.cpu.commit.commitNonSpecStalls          131992                       # The number of times commit has been forced to stall to communicate backwards (Count)
system.cpu.commit.branchMispredicts            118781                       # The number of times a branch was mispredicted (Count)
system.cpu.commit.numCommittedDist::samples     16486388                       # Number of insts commited each cycle (Count)
system.cpu.commit.numCommittedDist::mean     2.223107                       # Number of insts commited each cycle (Count)
system.cpu.commit.numCommittedDist::stdev     2.947052                       # Number of insts commited each cycle (Count)
system.cpu.commit.numCommittedDist::underflows            0      0.00%      0.00% # Number of insts commited each cycle (Count)
system.cpu.commit.numCommittedDist::0         6099158     37.00%     37.00% # Number of insts commited each cycle (Count)
system.cpu.commit.numCommittedDist::1         4484489     27.20%     64.20% # Number of insts commited each cycle (Count)
system.cpu.commit.numCommittedDist::2         1826539     11.08%     75.28% # Number of insts commited each cycle (Count)
system.cpu.commit.numCommittedDist::3          499648      3.03%     78.31% # Number of insts commited each cycle (Count)
system.cpu.commit.numCommittedDist::4          212307      1.29%     79.59% # Number of insts commited each cycle (Count)
system.cpu.commit.numCommittedDist::5          104990      0.64%     80.23% # Number of insts commited each cycle (Count)
system.cpu.commit.numCommittedDist::6          134856      0.82%     81.05% # Number of insts commited each cycle (Count)
system.cpu.commit.numCommittedDist::7          164021      0.99%     82.04% # Number of insts commited each cycle (Count)
system.cpu.commit.numCommittedDist::8         2960380     17.96%    100.00% # Number of insts commited each cycle (Count)
system.cpu.commit.numCommittedDist::overflows            0      0.00%    100.00% # Number of insts commited each cycle (Count)
system.cpu.commit.numCommittedDist::min_value            0                       # Number of insts commited each cycle (Count)
system.cpu.commit.numCommittedDist::max_value            8                       # Number of insts commited each cycle (Count)
system.cpu.commit.numCommittedDist::total     16486388                       # Number of insts commited each cycle (Count)
system.cpu.commit.amos                              0                       # Number of atomic instructions committed (Count)
system.cpu.commit.membars                          36                       # Number of memory barriers committed (Count)
system.cpu.commit.committedInstType_0::No_OpClass       115502      0.32%      0.32% # Class of committed instruction (Count)
system.cpu.commit.committedInstType_0::IntAlu     21103342     57.58%     57.89% # Class of committed instruction (Count)
system.cpu.commit.committedInstType_0::IntMult          683      0.00%     57.90% # Class of committed instruction (Count)
system.cpu.commit.committedInstType_0::IntDiv        36495      0.10%     58.00% # Class of committed instruction (Count)
system.cpu.commit.committedInstType_0::FloatAdd      2233939      6.10%     64.09% # Class of committed instruction (Count)
system.cpu.commit.committedInstType_0::FloatCmp            0      0.00%     64.09% # Class of committed instruction (Count)
system.cpu.commit.committedInstType_0::FloatCvt         1536      0.00%     64.10% # Class of committed instruction (Count)
system.cpu.commit.committedInstType_0::FloatMult        65536      0.18%     64.27% # Class of committed instruction (Count)
system.cpu.commit.committedInstType_0::FloatMultAcc            0      0.00%     64.27% # Class of committed instruction (Count)
system.cpu.commit.committedInstType_0::FloatDiv            0      0.00%     64.27% # Class of committed instruction (Count)
system.cpu.commit.committedInstType_0::FloatMisc            0      0.00%     64.27% # Class of committed instruction (Count)
system.cpu.commit.committedInstType_0::FloatSqrt            0      0.00%     64.27% # Class of committed instruction (Count)
system.cpu.commit.committedInstType_0::SimdAdd         6858      0.02%     64.29% # Class of committed instruction (Count)
system.cpu.commit.committedInstType_0::SimdAddAcc            0      0.00%     64.29% # Class of committed instruction (Count)
system.cpu.commit.committedInstType_0::SimdAlu       274574      0.75%     65.04% # Class of committed instruction (Count)
system.cpu.commit.committedInstType_0::SimdCmp            6      0.00%     65.04% # Class of committed instruction (Count)
system.cpu.commit.committedInstType_0::SimdCvt        14072      0.04%     65.08% # Class of committed instruction (Count)
system.cpu.commit.committedInstType_0::SimdMisc        77842      0.21%     65.29% # Class of committed instruction (Count)
system.cpu.commit.committedInstType_0::SimdMult            0      0.00%     65.29% # Class of committed instruction (Count)
system.cpu.commit.committedInstType_0::SimdMultAcc            0      0.00%     65.29% # Class of committed instruction (Count)
system.cpu.commit.committedInstType_0::SimdMatMultAcc            0      0.00%     65.29% # Class of committed instruction (Count)
system.cpu.commit.committedInstType_0::SimdShift          718      0.00%     65.29% # Class of committed instruction (Count)
system.cpu.commit.committedInstType_0::SimdShiftAcc            0      0.00%     65.29% # Class of committed instruction (Count)
system.cpu.commit.committedInstType_0::SimdDiv            0      0.00%     65.29% # Class of committed instruction (Count)
system.cpu.commit.committedInstType_0::SimdSqrt            0      0.00%     65.29% # Class of committed instruction (Count)
system.cpu.commit.committedInstType_0::SimdFloatAdd      2195456      5.99%     71.28% # Class of committed instruction (Count)
system.cpu.commit.committedInstType_0::SimdFloatAlu            0      0.00%     71.28% # Class of committed instruction (Count)
system.cpu.commit.committedInstType_0::SimdFloatCmp            0      0.00%     71.28% # Class of committed instruction (Count)
system.cpu.commit.committedInstType_0::SimdFloatCvt        98307      0.27%     71.55% # Class of committed instruction (Count)
system.cpu.commit.committedInstType_0::SimdFloatDiv        32769      0.09%     71.64% # Class of committed instruction (Count)
system.cpu.commit.committedInstType_0::SimdFloatMisc            0      0.00%     71.64% # Class of committed instruction (Count)
system.cpu.commit.committedInstType_0::SimdFloatMult      2162688      5.90%     77.54% # Class of committed instruction (Count)
system.cpu.commit.committedInstType_0::SimdFloatMultAcc            0      0.00%     77.54% # Class of committed instruction (Count)
system.cpu.commit.committedInstType_0::SimdFloatMatMultAcc            0      0.00%     77.54% # Class of committed instruction (Count)
system.cpu.commit.committedInstType_0::SimdFloatSqrt            0      0.00%     77.54% # Class of committed instruction (Count)
system.cpu.commit.committedInstType_0::SimdReduceAdd            0      0.00%     77.54% # Class of committed instruction (Count)
system.cpu.commit.committedInstType_0::SimdReduceAlu            0      0.00%     77.54% # Class of committed instruction (Count)
system.cpu.commit.committedInstType_0::SimdReduceCmp            0      0.00%     77.54% # Class of committed instruction (Count)
system.cpu.commit.committedInstType_0::SimdFloatReduceAdd            0      0.00%     77.54% # Class of committed instruction (Count)
system.cpu.commit.committedInstType_0::SimdFloatReduceCmp            0      0.00%     77.54% # Class of committed instruction (Count)
system.cpu.commit.committedInstType_0::SimdAes            0      0.00%     77.54% # Class of committed instruction (Count)
system.cpu.commit.committedInstType_0::SimdAesMix            0      0.00%     77.54% # Class of committed instruction (Count)
system.cpu.commit.committedInstType_0::SimdSha1Hash            0      0.00%     77.54% # Class of committed instruction (Count)
system.cpu.commit.committedInstType_0::SimdSha1Hash2            0      0.00%     77.54% # Class of committed instruction (Count)
system.cpu.commit.committedInstType_0::SimdSha256Hash            0      0.00%     77.54% # Class of committed instruction (Count)
system.cpu.commit.committedInstType_0::SimdSha256Hash2            0      0.00%     77.54% # Class of committed instruction (Count)
system.cpu.commit.committedInstType_0::SimdShaSigma2            0      0.00%     77.54% # Class of committed instruction (Count)
system.cpu.commit.committedInstType_0::SimdShaSigma3            0      0.00%     77.54% # Class of committed instruction (Count)
system.cpu.commit.committedInstType_0::SimdSha3            0      0.00%     77.54% # Class of committed instruction (Count)
system.cpu.commit.committedInstType_0::SimdSm4e            0      0.00%     77.54% # Class of committed instruction (Count)
system.cpu.commit.committedInstType_0::SimdCrc            0      0.00%     77.54% # Class of committed instruction (Count)
system.cpu.commit.committedInstType_0::SimdPredAlu            0      0.00%     77.54% # Class of committed instruction (Count)
system.cpu.commit.committedInstType_0::SimdDotProd            0      0.00%     77.54% # Class of committed instruction (Count)
system.cpu.commit.committedInstType_0::Matrix            0      0.00%     77.54% # Class of committed instruction (Count)
system.cpu.commit.committedInstType_0::MatrixMov            0      0.00%     77.54% # Class of committed instruction (Count)
system.cpu.commit.committedInstType_0::MatrixOP            0      0.00%     77.54% # Class of committed instruction (Count)
system.cpu.commit.committedInstType_0::MemRead      1032087      2.82%     80.36% # Class of committed instruction (Count)
system.cpu.commit.committedInstType_0::MemWrite       383831      1.05%     81.41% # Class of committed instruction (Count)
system.cpu.commit.committedInstType_0::FloatMemRead      4572608     12.48%     93.88% # Class of committed instruction (Count)
system.cpu.commit.committedInstType_0::FloatMemWrite      2242163      6.12%    100.00% # Class of committed instruction (Count)
[...]
system.mem_ctrl.dram.numReads::cpu.inst          2783                       # Number of read requests responded to by this memory (Count)
system.mem_ctrl.dram.numReads::cpu.data         29979                       # Number of read requests responded to by this memory (Count)
system.mem_ctrl.dram.numReads::total            32762                       # Number of read requests responded to by this memory (Count)
system.mem_ctrl.dram.numWrites::writebacks        12269                       # Number of write requests responded to by this memory (Count)
system.mem_ctrl.dram.numWrites::total           12269                       # Number of write requests responded to by this memory (Count)
system.mem_ctrl.dram.bwRead::cpu.inst        24296671                       # Total read bandwidth from this memory ((Byte/Second))
system.mem_ctrl.dram.bwRead::cpu.data       261728317                       # Total read bandwidth from this memory ((Byte/Second))
system.mem_ctrl.dram.bwRead::total          286024989                       # Total read bandwidth from this memory ((Byte/Second))
system.mem_ctrl.dram.bwInstRead::cpu.inst     24296671                       # Instruction read bandwidth from this memory ((Byte/Second))
system.mem_ctrl.dram.bwInstRead::total       24296671                       # Instruction read bandwidth from this memory ((Byte/Second))
system.mem_ctrl.dram.bwWrite::writebacks    107113137                       # Write bandwidth from this memory ((Byte/Second))
system.mem_ctrl.dram.bwWrite::total         107113137                       # Write bandwidth from this memory ((Byte/Second))
system.mem_ctrl.dram.bwTotal::writebacks    107113137                       # Total bandwidth to/from this memory ((Byte/Second))
system.mem_ctrl.dram.bwTotal::cpu.inst       24296671                       # Total bandwidth to/from this memory ((Byte/Second))
system.mem_ctrl.dram.bwTotal::cpu.data      261728317                       # Total bandwidth to/from this memory ((Byte/Second))
system.mem_ctrl.dram.bwTotal::total         393138126                       # Total bandwidth to/from this memory ((Byte/Second))
system.mem_ctrl.dram.readBursts                 32373                       # Number of DRAM read bursts (Count)
system.mem_ctrl.dram.writeBursts                12247                       # Number of DRAM write bursts (Count)
system.mem_ctrl.dram.perBankRdBursts::0          2459                       # Per bank write bursts (Count)
system.mem_ctrl.dram.perBankRdBursts::1          1951                       # Per bank write bursts (Count)
system.mem_ctrl.dram.perBankRdBursts::2          1980                       # Per bank write bursts (Count)
system.mem_ctrl.dram.perBankRdBursts::3          1881                       # Per bank write bursts (Count)
system.mem_ctrl.dram.perBankRdBursts::4          2151                       # Per bank write bursts (Count)
system.mem_ctrl.dram.perBankRdBursts::5          2044                       # Per bank write bursts (Count)
system.mem_ctrl.dram.perBankRdBursts::6          2066                       # Per bank write bursts (Count)
system.mem_ctrl.dram.perBankRdBursts::7          1830                       # Per bank write bursts (Count)
system.mem_ctrl.dram.perBankRdBursts::8          2020                       # Per bank write bursts (Count)
system.mem_ctrl.dram.perBankRdBursts::9          1985                       # Per bank write bursts (Count)
system.mem_ctrl.dram.perBankRdBursts::10         1975                       # Per bank write bursts (Count)
system.mem_ctrl.dram.perBankRdBursts::11         1920                       # Per bank write bursts (Count)
system.mem_ctrl.dram.perBankRdBursts::12         1813                       # Per bank write bursts (Count)
system.mem_ctrl.dram.perBankRdBursts::13         1922                       # Per bank write bursts (Count)
system.mem_ctrl.dram.perBankRdBursts::14         2056                       # Per bank write bursts (Count)
system.mem_ctrl.dram.perBankRdBursts::15         2320                       # Per bank write bursts (Count)
system.mem_ctrl.dram.perBankWrBursts::0           824                       # Per bank write bursts (Count)
system.mem_ctrl.dram.perBankWrBursts::1           709                       # Per bank write bursts (Count)
system.mem_ctrl.dram.perBankWrBursts::2           756                       # Per bank write bursts (Count)
system.mem_ctrl.dram.perBankWrBursts::3           740                       # Per bank write bursts (Count)
system.mem_ctrl.dram.perBankWrBursts::4           840                       # Per bank write bursts (Count)
system.mem_ctrl.dram.perBankWrBursts::5           819                       # Per bank write bursts (Count)
system.mem_ctrl.dram.perBankWrBursts::6           801                       # Per bank write bursts (Count)
system.mem_ctrl.dram.perBankWrBursts::7           686                       # Per bank write bursts (Count)
system.mem_ctrl.dram.perBankWrBursts::8           694                       # Per bank write bursts (Count)
system.mem_ctrl.dram.perBankWrBursts::9           712                       # Per bank write bursts (Count)
system.mem_ctrl.dram.perBankWrBursts::10          726                       # Per bank write bursts (Count)
system.mem_ctrl.dram.perBankWrBursts::11          657                       # Per bank write bursts (Count)
system.mem_ctrl.dram.perBankWrBursts::12          759                       # Per bank write bursts (Count)
system.mem_ctrl.dram.perBankWrBursts::13          757                       # Per bank write bursts (Count)
system.mem_ctrl.dram.perBankWrBursts::14          777                       # Per bank write bursts (Count)
system.mem_ctrl.dram.perBankWrBursts::15          990                       # Per bank write bursts (Count)
system.mem_ctrl.dram.totQLat                328509010                       # Total ticks spent queuing (Tick)
system.mem_ctrl.dram.totBusLat              161865000                       # Total ticks spent in databus transfers (Tick)
system.mem_ctrl.dram.totMemAccLat           935502760                       # Total ticks spent from burst creation until serviced by the DRAM (Tick)
system.mem_ctrl.dram.avgQLat                 10147.62                       # Average queueing delay per DRAM burst ((Tick/Count))
system.mem_ctrl.dram.avgBusLat                5000.00                       # Average bus latency per DRAM burst ((Tick/Count))
system.mem_ctrl.dram.avgMemAccLat            28897.62                       # Average memory access latency per DRAM burst ((Tick/Count))
system.mem_ctrl.dram.readRowHits                25052                       # Number of row buffer hits during reads (Count)
system.mem_ctrl.dram.writeRowHits                9291                       # Number of row buffer hits during writes (Count)
system.mem_ctrl.dram.readRowHitRate             77.39                       # Row buffer hit rate for reads (Ratio)
system.mem_ctrl.dram.writeRowHitRate            75.86                       # Row buffer hit rate for writes (Ratio)
system.mem_ctrl.dram.bytesPerActivate::samples        10262                       # Bytes accessed per row activation (Byte)
system.mem_ctrl.dram.bytesPerActivate::mean   278.015202                       # Bytes accessed per row activation (Byte)
system.mem_ctrl.dram.bytesPerActivate::gmean   177.847378                       # Bytes accessed per row activation (Byte)
system.mem_ctrl.dram.bytesPerActivate::stdev   281.017327                       # Bytes accessed per row activation (Byte)
system.mem_ctrl.dram.bytesPerActivate::0-127         3455     33.67%     33.67% # Bytes accessed per row activation (Byte)
system.mem_ctrl.dram.bytesPerActivate::128-255         2818     27.46%     61.13% # Bytes accessed per row activation (Byte)
system.mem_ctrl.dram.bytesPerActivate::256-383         1340     13.06%     74.19% # Bytes accessed per row activation (Byte)
system.mem_ctrl.dram.bytesPerActivate::384-511          664      6.47%     80.66% # Bytes accessed per row activation (Byte)
system.mem_ctrl.dram.bytesPerActivate::512-639          578      5.63%     86.29% # Bytes accessed per row activation (Byte)
system.mem_ctrl.dram.bytesPerActivate::640-767          302      2.94%     89.23% # Bytes accessed per row activation (Byte)
system.mem_ctrl.dram.bytesPerActivate::768-895          269      2.62%     91.85% # Bytes accessed per row activation (Byte)
system.mem_ctrl.dram.bytesPerActivate::896-1023          202      1.97%     93.82% # Bytes accessed per row activation (Byte)
system.mem_ctrl.dram.bytesPerActivate::1024-1151          634      6.18%    100.00% # Bytes accessed per row activation (Byte)
system.mem_ctrl.dram.bytesPerActivate::total        10262                       # Bytes accessed per row activation (Byte)
system.mem_ctrl.dram.dramBytesRead            2071872                       # Total bytes read (Byte)
system.mem_ctrl.dram.dramBytesWritten          783808                       # Total bytes written (Byte)
system.mem_ctrl.dram.avgRdBW               282.628868                       # Average DRAM read bandwidth in MiBytes/s ((Byte/Second))
system.mem_ctrl.dram.avgWrBW               106.921068                       # Average DRAM write bandwidth in MiBytes/s ((Byte/Second))
system.mem_ctrl.dram.peakBW                  12800.00                       # Theoretical peak bandwidth in MiByte/s ((Byte/Second))
system.mem_ctrl.dram.busUtil                     3.04                       # Data bus utilization in percentage (Ratio)
system.mem_ctrl.dram.busUtilRead                 2.21                       # Data bus utilization in percentage for reads (Ratio)
system.mem_ctrl.dram.busUtilWrite                0.84                       # Data bus utilization in percentage for writes (Ratio)
system.mem_ctrl.dram.pageHitRate                76.97                       # Row buffer hit rate, read and write combined (Ratio)
system.mem_ctrl.dram.power_state.pwrStateResidencyTicks::UNDEFINED   7330716135                       # Cumulative time (in ticks) in various power states (Tick)
system.mem_ctrl.dram.rank0.actEnergy         35714280                       # Energy for activate commands per rank (pJ) (Joule)
system.mem_ctrl.dram.rank0.preEnergy         18952230                       # Energy for precharge commands per rank (pJ) (Joule)
system.mem_ctrl.dram.rank0.readEnergy       116824680                       # Energy for read commands per rank (pJ) (Joule)
system.mem_ctrl.dram.rank0.writeEnergy       32233500                       # Energy for write commands per rank (pJ) (Joule)
system.mem_ctrl.dram.rank0.refreshEnergy 578376240.000000                       # Energy for refresh commands per rank (pJ) (Joule)
system.mem_ctrl.dram.rank0.actBackEnergy   2238122670                       # Energy for active background per rank (pJ) (Joule)
system.mem_ctrl.dram.rank0.preBackEnergy    930260160                       # Energy for precharge background per rank (pJ) (Joule)
system.mem_ctrl.dram.rank0.actPowerDownEnergy            0                       # Energy for active power-down per rank (pJ) (Joule)
system.mem_ctrl.dram.rank0.prePowerDownEnergy            0                       # Energy for precharge power-down per rank (pJ) (Joule)
system.mem_ctrl.dram.rank0.selfRefreshEnergy            0                       # Energy for self refresh per rank (pJ) (Joule)
system.mem_ctrl.dram.rank0.totalEnergy     3950483760                       # Total energy per rank (pJ) (Joule)
system.mem_ctrl.dram.rank0.averagePower    538.894657                       # Core power per rank (mW) (Watt)
system.mem_ctrl.dram.rank0.totalIdleTime            0                       # Total Idle time Per DRAM Rank (Tick)
system.mem_ctrl.dram.rank0.pwrStateTime::IDLE   2398807515                       # Time in different power states (Tick)
system.mem_ctrl.dram.rank0.pwrStateTime::REF    244660000                       # Time in different power states (Tick)
system.mem_ctrl.dram.rank0.pwrStateTime::SREF            0                       # Time in different power states (Tick)
system.mem_ctrl.dram.rank0.pwrStateTime::PRE_PDN            0                       # Time in different power states (Tick)
system.mem_ctrl.dram.rank0.pwrStateTime::ACT   4687248620                       # Time in different power states (Tick)
system.mem_ctrl.dram.rank0.pwrStateTime::ACT_PDN            0                       # Time in different power states (Tick)
system.mem_ctrl.dram.rank1.actEnergy         37663500                       # Energy for activate commands per rank (pJ) (Joule)
system.mem_ctrl.dram.rank1.preEnergy         19992060                       # Energy for precharge commands per rank (pJ) (Joule)
system.mem_ctrl.dram.rank1.readEnergy       114318540                       # Energy for read commands per rank (pJ) (Joule)
system.mem_ctrl.dram.rank1.writeEnergy       31695840                       # Energy for write commands per rank (pJ) (Joule)
system.mem_ctrl.dram.rank1.refreshEnergy 578376240.000000                       # Energy for refresh commands per rank (pJ) (Joule)
system.mem_ctrl.dram.rank1.actBackEnergy   2266642050                       # Energy for active background per rank (pJ) (Joule)
system.mem_ctrl.dram.rank1.preBackEnergy    906243840                       # Energy for precharge background per rank (pJ) (Joule)
system.mem_ctrl.dram.rank1.actPowerDownEnergy            0                       # Energy for active power-down per rank (pJ) (Joule)
system.mem_ctrl.dram.rank1.prePowerDownEnergy            0                       # Energy for precharge power-down per rank (pJ) (Joule)
system.mem_ctrl.dram.rank1.selfRefreshEnergy            0                       # Energy for self refresh per rank (pJ) (Joule)
system.mem_ctrl.dram.rank1.totalEnergy     3954932070                       # Total energy per rank (pJ) (Joule)
system.mem_ctrl.dram.rank1.averagePower    539.501462                       # Core power per rank (mW) (Watt)
system.mem_ctrl.dram.rank1.totalIdleTime            0                       # Total Idle time Per DRAM Rank (Tick)
system.mem_ctrl.dram.rank1.pwrStateTime::IDLE   2335719230                       # Time in different power states (Tick)
system.mem_ctrl.dram.rank1.pwrStateTime::REF    244660000                       # Time in different power states (Tick)
system.mem_ctrl.dram.rank1.pwrStateTime::SREF            0                       # Time in different power states (Tick)
system.mem_ctrl.dram.rank1.pwrStateTime::PRE_PDN            0                       # Time in different power states (Tick)
system.mem_ctrl.dram.rank1.pwrStateTime::ACT   4750336905                       # Time in different power states (Tick)
system.mem_ctrl.dram.rank1.pwrStateTime::ACT_PDN            0                       # Time in different power states (Tick)
system.mem_ctrl.power_state.pwrStateResidencyTicks::UNDEFINED   7330716135                       # Cumulative time (in ticks) in various power states (Tick)
system.membus.transDist::ReadResp               23543                       # Transaction distribution (Count)
system.membus.transDist::WritebackDirty         12269                       # Transaction distribution (Count)
system.membus.transDist::CleanEvict             16240                       # Transaction distribution (Count)
system.membus.transDist::UpgradeReq                 1                       # Transaction distribution (Count)
system.membus.transDist::ReadExReq               9219                       # Transaction distribution (Count)
system.membus.transDist::ReadExResp              9219                       # Transaction distribution (Count)
system.membus.transDist::ReadSharedReq          23543                       # Transaction distribution (Count)
system.membus.pktCount_system.l2cache.mem_side_port::system.mem_ctrl.port        94034                       # Packet count per connected requestor and responder (Count)
system.membus.pktCount_system.l2cache.mem_side_port::total        94034                       # Packet count per connected requestor and responder (Count)
system.membus.pktCount::total                   94034                       # Packet count per connected requestor and responder (Count)
system.membus.pktSize_system.l2cache.mem_side_port::system.mem_ctrl.port      2881984                       # Cumulative packet size per connected requestor and responder (Byte)
system.membus.pktSize_system.l2cache.mem_side_port::total      2881984                       # Cumulative packet size per connected requestor and responder (Byte)
system.membus.pktSize::total                  2881984                       # Cumulative packet size per connected requestor and responder (Byte)
system.membus.snoops                                0                       # Total snoops (Count)
system.membus.snoopTraffic                          0                       # Total snoop traffic (Byte)
system.membus.snoopFanout::samples              32763                       # Request fanout histogram (Count)
system.membus.snoopFanout::mean                     0                       # Request fanout histogram (Count)
system.membus.snoopFanout::stdev                    0                       # Request fanout histogram (Count)
system.membus.snoopFanout::underflows               0      0.00%      0.00% # Request fanout histogram (Count)
system.membus.snoopFanout::0                    32763    100.00%    100.00% # Request fanout histogram (Count)
system.membus.snoopFanout::1                        0      0.00%    100.00% # Request fanout histogram (Count)
system.membus.snoopFanout::overflows                0      0.00%    100.00% # Request fanout histogram (Count)
system.membus.snoopFanout::min_value                0                       # Request fanout histogram (Count)
system.membus.snoopFanout::max_value                0                       # Request fanout histogram (Count)
system.membus.snoopFanout::total                32763                       # Request fanout histogram (Count)
system.membus.power_state.pwrStateResidencyTicks::UNDEFINED   7330716135                       # Cumulative time (in ticks) in various power states (Tick)
system.membus.reqLayer2.occupancy            48001380                       # Layer occupancy (ticks) (Tick)
system.membus.reqLayer2.utilization               0.0                       # Layer utilization (Ratio)
system.membus.respLayer0.occupancy           82290075                       # Layer occupancy (ticks) (Tick)
system.membus.respLayer0.utilization              0.0                       # Layer utilization (Ratio)
system.membus.snoop_filter.totRequests          61272                       # Total number of requests made to the snoop filter. (Count)
system.membus.snoop_filter.hitSingleRequests        28515                       # Number of requests hitting in the snoop filter with a single holder of the requested data. (Count)
system.membus.snoop_filter.hitMultiRequests            0                       # Number of requests hitting in the snoop filter with multiple (>1) holders of the requested data. (Count)
system.membus.snoop_filter.totSnoops                0                       # Total number of snoops made to the snoop filter. (Count)
system.membus.snoop_filter.hitSingleSnoops            0                       # Number of snoops hitting in the snoop filter with a single holder of the requested data. (Count)
system.membus.snoop_filter.hitMultiSnoops            0                       # Number of snoops hitting in the snoop filter with multiple (>1) holders of the requested data. (Count)
system.workload.inst.arm                            0                       # number of arm instructions executed (Count)
system.workload.inst.quiesce                        0                       # number of quiesce instructions executed (Count)

---------- End Simulation Statistics   ----------
